/*--------------------------------*- C++ -*----------------------------------*\
  =========                 |
  \\      /  F ield         | OpenFOAM: The Open Source CFD Toolbox
   \\    /   O peration     | Website:  https://openfoam.org
    \\  /    A nd           | Version:  8
     \\/     M anipulation  |
\*---------------------------------------------------------------------------*/
FoamFile
{
    version     2.0;
    format      ascii;
    class       dictionary;
    object      blockMeshDict;
}
// * * * * * * * * * * * * * * * * * * * * * * * * * * * * * * * * * * * * * //
#inputSyntax slash;

backgroundMesh
{
    xMin    -1;
    xMax     9;
    yMin    -3;
    yMax     8;
    zMin    -1;
    zMax     1;
    xCells  40;
    yCells  44;
    zCells  8;
}

convertToMeters 1;

vertices
(
    ($!backgroundMesh/xMin $!backgroundMesh/yMin $!backgroundMesh/zMin)
    ($!backgroundMesh/xMax $!backgroundMesh/yMin $!backgroundMesh/zMin)
    ($!backgroundMesh/xMax $!backgroundMesh/yMax $!backgroundMesh/zMin)
    ($!backgroundMesh/xMin $!backgroundMesh/yMax $!backgroundMesh/zMin)

    ($!backgroundMesh/xMin $!backgroundMesh/yMin $!backgroundMesh/zMax)
    ($!backgroundMesh/xMax $!backgroundMesh/yMin $!backgroundMesh/zMax)
    ($!backgroundMesh/xMax $!backgroundMesh/yMax $!backgroundMesh/zMax)
    ($!backgroundMesh/xMin $!backgroundMesh/yMax $!backgroundMesh/zMax)
);

blocks
(
    hex (0 1 2 3 4 5 6 7)
    (
        $!backgroundMesh/xCells
        $!backgroundMesh/yCells
        $!backgroundMesh/zCells
    )
    simpleGrading (1 1 1)
);

edges
(
);

boundary
(
//  Uncomment below to define patches in background mesh
/*
    left
    {
        type patch;
        faces
        (
            (0 3 7 4)
        );
    }

    right
    {
        type patch;
        faces
        (
            (1 5 6 2)
        );
    }

    bottom
    {
        type patch;
        faces
        (
            (0 1 2 3)
        );
    }

    top
    {
        type patch;
        faces
        (
            (4 7 6 5)
        );
    }

    back
    {
        type patch;
        faces
        (
            (0 4 5 1)
        );
    }

    front
    {
        type patch;
        faces
        (
            (3 2 6 7)
        );
    }
*/
);

mergePatchPairs
(
);

// ************************************************************************* //
