/*--------------------------------*- C++ -*----------------------------------*\
  =========                 |
  \\      /  F ield         | OpenFOAM: The Open Source CFD Toolbox
   \\    /   O peration     | Website:  https://openfoam.org
    \\  /    A nd           | Version:  8
     \\/     M anipulation  |
\*---------------------------------------------------------------------------*/
FoamFile
{
    version     2.0;
    format      ascii;
    class       dictionary;
    object      snappyHexMeshDict;
}
// * * * * * * * * * * * * * * * * * * * * * * * * * * * * * * * * * * * * * //

#includeEtc "caseDicts/mesh/generation/snappyHexMeshDict.cfg"

castellatedMesh on;
snap            on;
addLayers       off;

geometry
{
    Pipe
    {
        type triSurfaceMesh;
        file "pipe.obj";
        regions
        {
            inlet1  { name inlet1; }
            inlet2  { name inlet2; }
            Walls  { name Walls; }
            outlet { name outlet; }
        }
    }
};

castellatedMeshControls
{
    features
    (
//      { file "CAD.eMesh"; level 1; }
    );

    refinementSurfaces
    {
        Pipe
        {
            level (2 2);
            patchInfo { type wall; }

            regions
            {
                inlet1
                {
                    level (2 2);
                    patchInfo
                    {
                        type patch;
                        inGroups (inlet);
                    }
                }
                inlet2
                {
                    level (2 2);
                    patchInfo
                    {
                        type patch;
                        inGroups (inlet);
                    }
                }
                
                outlet
                {
                    level (2 2);
                    patchInfo
                    {
                        type patch;
                        inGroups (outlet);
                    }
                }
            }
        }
    }

    refinementRegions
    {
        Pipe
        {
            mode inside;
            levels ((1E15 2));
        }
    }

    locationInMesh (2.0001 1e-5 1e-5); // Offset from (0 0 0) to avoid
                                     // coinciding with face or edge
    nCellsBetweenLevels 3;
}

snapControls
{
//  explicitFeatureSnap    true;
//  implicitFeatureSnap    false;
}

addLayersControls
{
    layers
    {
        "CAD.*"
        {
            nSurfaceLayers 2;
        }
    }

    relativeSizes       true; // false, usually with firstLayerThickness
    expansionRatio      1.2;
    finalLayerThickness 0.5;
    minThickness        1e-3;
//  firstLayerThickness 0.01;

//  maxThicknessToMedialRatio 0.6;
}

writeFlags
(
//    scalarLevels
    layerSets
    layerFields
);

mergeTolerance 1e-6;

// ************************************************************************* //
